FoamFile
{
    version     2.0;
    format      ascii;
    class       dictionary;
    location    "constant";
    object      phaseProperties;
}

phases (air water);

air
{
    type            pureIsothermalPhaseModel;

    diameterModel   LogMoM;

    LogMoMCoeffs
    {
        dMax            2e-2;
        dMin            1e-6;

        continuousPhase water;

        sources
        (
            coalescence
            {
                type            LehrMilliesMewes;
                GaussHermite    3;
            }

            breakup
            {
                type            LehrMilliesMewes;
                GaussHermite    3;
                GaussLegendre   5;
            }
        );
    }

    residualAlpha   1e-6;
}

water
{
    type            pureIsothermalPhaseModel;

    diameterModel   constant;

    constantCoeffs
    {
        d               1e-4;
    }

    residualAlpha   1e-6;
}

blending
{
    default
    {
        type            linear;
        minFullyContinuousAlpha.air 0.7;
        minPartlyContinuousAlpha.air 0.3;
        minFullyContinuousAlpha.water 0.7;
        minPartlyContinuousAlpha.water 0.3;
    }

    drag
    {
        type            linear;
        minFullyContinuousAlpha.air 0.7;
        minPartlyContinuousAlpha.air 0.5;
        minFullyContinuousAlpha.water 0.7;
        minPartlyContinuousAlpha.water 0.5;
    }
}

surfaceTension
{
    air_water
    {
        type    constant;
        sigma   0.06;
    }
}

aspectRatio
{
    air_dispersedIn_water
    {
        type            constant;
        E0              1.0;
    }

    water_dispersedIn_air
    {
        type            constant;
        E0              1.0;
    }
}

interfaceCompression
{}
